Circuit: * F:\Elettronica\ProvaInduttori\LTSpice\ProvaInduttori.asc

Direct Newton iteration for .op point succeeded.

Date: Sun Nov 29 17:07:44 2015
Total elapsed time: 0.060 seconds.

tnom = 27
temp = 27
method = modified trap
totiter = 2095
traniter = 2084
tranpoints = 1043
accept = 1043
rejected = 0
matrix size = 38
fillins = 32
solver = Normal
Matrix Compiler1: 3.21 KB object code size  1.0/0.5/[0.2]
Matrix Compiler2: off  [0.4]/0.5/0.5


